ELEMENTS
N  AR H  O  C  
END
SPECIES
  A2R5C2H CH3CH2ONO2 HONO CH3CH2ONO N2O
  H2NN C3H2 NO3 IXC4H10 HNCNH
  N2 H2NO H2O cC2H3O C9H8
  C6H3 C10H10 H2C4O CH2OCH CH3NHCH2
  NH2 N2H2 C3H5XS PERYLENJS C
  HCCOH NH H A3C2HX2JS CH3NO2
  CH2OH A1C2H CHCNH NO2 C4H8X2
  CN CH3CH2O C10H9 NXA1C2H2 CHCNH2
  A2C2HB CH2OCH2 CH3NH2 A3X4 C4H4
  A2C2H_2 FLTN CH3C(O)OO CH3CHOOH PYC2HX1JP
  C5H4 CH3NCH CH2CO HOCN C4H4O
  A2XC10H8 C2H5NO HNC CH2NH C4H9X1
  CXXC4H5 TXXC4H9 CHCHOH A3CH3 CH2CHCHCHO
  A4X4 CH3CHNO2 A2C2H2 A1C2HX cC2H4O
  BEPYREN PXC3H4 CH3CH2OOH HOCO C2H3CHOCH2
  NH3 CH2CNH C3H6 A2X1 A1C2H5
  C5H5OH C8H2 BEPYRENJS BIPHEN N
  IXXC4H7 A1CH2O CH3CHN A3R5 A2X2
  C2H3 NXXC4H5 HCNH CHCHNO CH2CH2NO2
  HO2 CHRYSENJ1 A2C2HAD C7H5 A2R5C2HY
  CH2CHNH H2NCHO C2H5NO2 CH2D A1XXC6H5
  CH2CHNH2 O2 LXXC6H4 C2H4 HCNO
  CH3CO BGHIPER CH3NO CH3CHNO C3H5XA
  A1CHO BGHIPEJS1 C7H6 IXXC4H9 H2NCO
  CH2NCH2 CH2CH2OH C5H4O C14H14 HCCO
  OC6H4O C6H5CO CH2CHOO C4H C4H2
  NXXC4H3 CHRYSENJ4 PERYLEN A2CH3 C6H2
  A2OX P2XC12H10 C4H6O23 N2H3 C14H12
  IXXC3H7 PYC2HX2JS IXXC4H3 NH2OH CH2CH2NH2
  CH3ONO CH2CNH2 ANTHAN CH3CHNH2 C6H5CH2
  CH3NH IXXC4H5 NO C3H7 CH3CH2OH
  CH3OH LXC5H7 CH3CH2NH2 C3H8 HNCN
  AR A1C2H3D NAPHTHYN CH2CHNO AXC3H4
  PYC2HX2 A4X1 PYC2HX1 CO A1C2HC2H2
  A3R5X A1C3H2 HNO CH3O N2H4
  CH2NO2 CH2CHOOH CXXC5H5 C4H6X2 A2C2H2B
  CH3CH2OO CXXC5H6 CH3NCH2 C2H6 C4H6O25
  CH3COCH3 A3CH2 CHRYSEN CH3CHOH CH2NO
  C3H3 BAPYRJS CH2CH2OOH A2C2HA CH3NHCH3
  CH2CHN(S) HON ANTHANJS HCNN C4H7
  C6H5O CHCHNH2 C5H5OG2J4G P2XH IXXC4H8
  C2H5 CH3CHOCH2 NCN C2 CH2CHOH
  A3C2HX2 CH2O CH2NH2 CH2CHO NNH
  A2OH CH3C(O)O CH3CHCHCHO CH3ONO2 CH2CHN
  A3XC14H10 CH3CN C5H3 A1XC6H6 BAPYR
  CH HOCH2CH2OO C4H9X2 HOA1CH3 NCO
  CH3C(O)OOH C4H6X12 IXA1C2H2 A4XC16H10 CHRYSENJ5
  C4H5X2 C2H3CHO C3H5XT C5H5OG1J3G HNOH
  C6H4CH3 A3C2H2 CH3NCH3 A2R5X A4X2
  HNO2 C5H4CH2 HONO2 PYC2HX4 P2XXH9C12
  CORONEN CH3CHCHCO OCHCO C5H5CH3 OCHCHO
  A2R5C2H2 CXXC6H4 HNCO C2O c-C2H3N
  C4H10 CH2 PYC2HX4JS CXC3H4 A1C2H4
  A2R5 C4H8X1 HOCHO A2CH2 A1C2H_2
  CH3CH2CHO CH2(S) A1C2HD A3C2H CH2CHCO
  OA1CH3 A1OH OH HCO C9H6O
  H2CC C4H6X13 C6H5CH3 NCNO CH4
  CH3CNH C2H A1CH2OH CH2OOH A3X1
  NXXC3H7 CH3CHNH NCNOH A1C2H3 O
  A4R5 H2 CH3OO CH3CHO C5H4OH
  H2CN HCN C9H7 CO2 C2H2
  H2O2 CH3CH2NH A2C2HBD NCCN CH2CN
  CH3 A1C2HC2H2U
END
REACTIONS
H+O2<=>O+OH                              2.644e+16   -0.671  17041.11
O+H2<=>H+OH                              4.589e+04    2.700   6260.04
OH+H2<=>H+H2O                            1.734e+08    1.510   3429.97
2OH<=>O+H2O                              3.973e+04    2.400  -2109.94
2H+M<=>H2+M                              1.780e+18   -1.000      0.00
AR/0.63/ H2/0.00/ H2O/0.00/ CO2/0.00/   
2H+H2<=>2H2                              9.000e+16   -0.600      0.00
2H+H2O<=>H2+H2O                          5.624e+19   -1.250      0.00
2H+CO2<=>H2+CO2                          5.500e+20   -2.000      0.00
H+OH+M<=>H2O+M                           4.400e+22   -2.000      0.00
AR/0.38/ H2/2.00/ H2O/6.30/ CO2/3.60/ CO/1.75/   
O+H+M<=>OH+M                             9.428e+18   -1.000      0.00
AR/0.70/ H2/2.00/ H2O/12.00/ CO2/3.60/ CO/1.75/   
2O+M<=>O2+M                              1.200e+17   -1.000      0.00
AR/0.83/ H2/2.40/ H2O/15.40/ CO2/3.60/ CO/1.75/   
H+O2(+M)<=>HO2(+M)                       5.116e+12    0.440      0.00
AR/0.40/ O2/0.85/ H2O/11.89/ CO2/2.18/ CO/1.09/   
     LOW  /  6.328e+19   -1.400      0.00 /
!     FCCHECK/  0.5000      0.00 0.5000 1000000000000000019884624838656.00 0.0000      0.00
     TROE/     0.5     0.00 1000000000000000019884624838656.00        /
H2+O2<=>HO2+H                            5.916e+05    2.433  53501.91
2OH(+M)<=>H2O2(+M)                       1.110e+14   -0.370      0.00
AR/0.70/ H2/2.00/ H2O/6.00/ CO2/3.60/ CO/1.75/   
     LOW  /  2.010e+17   -0.584  -2293.02 /
     TROE/  0.7346    94.00   1756.00   5182.00 /
HO2+H<=>O+H2O                            3.970e+12    0.000    670.89
HO2+H<=>2OH                              7.485e+13    0.000    294.93
HO2+O<=>OH+O2                            4.000e+13    0.000      0.00
2HO2<=>O2+H2O2                           1.300e+11    0.000  -1630.02
     DUPLICATE
2HO2<=>O2+H2O2                           3.658e+14    0.000  12000.00
     DUPLICATE
OH+HO2<=>H2O+O2                          1.410e+18   -1.760     59.99
     DUPLICATE
OH+HO2<=>H2O+O2                          1.120e+85  -22.300  26900.10
     DUPLICATE
OH+HO2<=>H2O+O2                          5.370e+70  -16.720  32900.10
     DUPLICATE
OH+HO2<=>H2O+O2                          2.510e+12    2.000  40000.00
     DUPLICATE
OH+HO2<=>H2O+O2                          1.000e+136  -40.000  34799.95
     DUPLICATE
H2O2+H<=>HO2+H2                          6.050e+06    2.000   5200.05
H2O2+H<=>OH+H2O                          2.410e+13    0.000   3969.89
H2O2+O<=>OH+HO2                          9.630e+06    2.000   3969.89
H2O2+OH<=>HO2+H2O                        2.000e+12    0.000    427.10
     DUPLICATE
H2O2+OH<=>HO2+H2O                        2.670e+41   -7.000  37599.90
     DUPLICATE
CO+O(+M)<=>CO2(+M)                       1.362e+10    0.000   2384.08
AR/0.70/ H2/2.00/ H2O/12.00/ CO2/3.60/ CO/1.75/   
     LOW  /  1.173e+24   -2.790   4190.97 /
!     FCCHECK/  0.0000      0.00 0.0000      0.00 1.0000      0.00
     TROE/       1     1.00 10000000.00 10000000.00 /
CO+OH<=>CO2+H                            7.046e+04    2.053   -355.64
     DUPLICATE
CO+OH<=>CO2+H                            5.757e+12   -0.664    331.74
     DUPLICATE
CO+O2<=>CO2+O                            1.119e+12    0.000  47700.05
CO+HO2<=>CO2+OH                          1.570e+05    2.180  17942.64
HCO+H<=>CO+H2                            1.200e+14    0.000      0.00
HCO+O<=>CO+OH                            3.000e+13    0.000      0.00
HCO+O<=>CO2+H                            3.000e+13    0.000      0.00
HCO+OH<=>CO+H2O                          3.020e+13    0.000      0.00
HCO+M<=>CO+H+M                           1.870e+17   -1.000  17000.00
H2/2.00/ H2O/0.00/ CO2/3.60/ CO/1.75/   
HCO+H2O<=>CO+H+H2O                       2.244e+18   -1.000  17000.00
HCO+O2<=>CO+HO2                          1.204e+10    0.807   -727.06
CO+H2(+M)<=>CH2O(+M)                     4.300e+07    1.500  79599.90
AR/0.70/ H2/2.00/ H2O/6.00/ CO2/2.00/ CO/1.50/ CH4/2.00/ C2H6/3.00/  
 
     LOW  /  5.070e+27   -3.420  84349.90 /
     TROE/   0.932   197.00   1540.00  10300.00 /
C+OH<=>CO+H                              5.000e+13    0.000      0.00
C+O2<=>CO+O                              5.800e+13    0.000    576.00
CH+H<=>C+H2                              1.100e+14    0.000      0.00
CH+O<=>CO+H                              5.700e+13    0.000      0.00
CH+OH<=>HCO+H                            3.000e+13    0.000      0.00
CH+H2<=>CH2+H                            1.107e+08    1.790   1669.93
CH+H2O<=>CH2O+H                          5.710e+12    0.000   -755.02
CH+O2<=>HCO+O                            3.300e+13    0.000      0.00
CH+CO(+M)<=>HCCO(+M)                     5.000e+13    0.000      0.00
AR/0.70/ H2/2.00/ H2O/6.00/ CO2/2.00/ CO/1.50/ CH4/2.00/ C2H6/3.00/  
 
     LOW  /  2.690e+28   -3.740   1935.95 /
     TROE/  0.5757   237.00   1652.00   5069.00 /
CH+CO2<=>HCO+CO                          3.400e+12    0.000    690.01
HCO+H(+M)<=>CH2O(+M)                     1.090e+12    0.480   -260.04
AR/0.70/ H2/2.00/ H2O/6.00/ CO2/2.00/ CO/1.50/ CH4/2.00/ C2H6/3.00/  
 
     LOW  /  1.350e+24   -2.570   1424.95 /
     TROE/  0.7824   271.00   2755.00   6570.00 /
CH2+H(+M)<=>CH3(+M)                      2.500e+16   -0.800      0.00
AR/0.70/ H2/2.00/ H2O/6.00/ CO2/2.00/ CO/1.50/ CH4/2.00/ C2H6/3.00/  
 
     LOW  /  3.200e+27   -3.140   1229.92 /
     TROE/    0.68    78.00   1995.00   5590.00 /
CH2+O<=>HCO+H                            8.000e+13    0.000      0.00
CH2+OH<=>CH2O+H                          2.000e+13    0.000      0.00
CH2+OH<=>CH+H2O                          1.130e+07    2.000   3000.00
CH2+H2<=>H+CH3                           5.000e+05    2.000   7229.92
CH2+O2<=>HCO+OH                          1.060e+13    0.000   1500.00
CH2+O2<=>CO2+2H                          2.640e+12    0.000   1500.00
CH2+HO2<=>CH2O+OH                        2.000e+13    0.000      0.00
CH2+C<=>C2H+H                            5.000e+13    0.000      0.00
CH2+CO(+M)<=>CH2CO(+M)                   8.100e+11    0.500   4510.04
AR/0.70/ H2/2.00/ H2O/6.00/ CO2/2.00/ CO/1.50/ CH4/2.00/ C2H6/3.00/  
 
     LOW  /  2.690e+33   -5.110   7094.89 /
     TROE/  0.5907   275.00   1226.00   5185.00 /
CH2+CH<=>C2H2+H                          4.000e+13    0.000      0.00
2CH2<=>C2H2+H2                           3.200e+13    0.000      0.00
CH2D+N2<=>CH2+N2                         1.500e+13    0.000    599.90
CH2D+AR<=>CH2+AR                         9.000e+12    0.000    599.90
CH2D+H<=>CH+H2                           3.000e+13    0.000      0.00
CH2D+O<=>CO+H2                           1.500e+13    0.000      0.00
CH2D+O<=>HCO+H                           1.500e+13    0.000      0.00
CH2D+OH<=>CH2O+H                         3.000e+13    0.000      0.00
CH2D+H2<=>CH3+H                          7.000e+13    0.000      0.00
CH2D+O2<=>H+OH+CO                        2.800e+13    0.000      0.00
CH2D+O2<=>CO+H2O                         1.200e+13    0.000      0.00
CH2D+H2O(+M)<=>CH3OH(+M)                 2.000e+13    0.000      0.00
H2/2.00/ H2O/6.00/ CO2/2.00/ CO/1.50/ CH4/2.00/ C2H6/3.00/  
 
     LOW  /  2.700e+38   -6.300   3099.90 /
     TROE/  0.1507   134.00   2383.00   7265.00 /
CH2D+H2O<=>CH2+H2O                       3.000e+13    0.000      0.00
CH2D+CO<=>CH2+CO                         9.000e+12    0.000      0.00
CH2D+CO2<=>CH2+CO2                       7.000e+12    0.000      0.00
CH2D+CO2<=>CH2O+CO                       1.400e+13    0.000      0.00
CH2O+H(+M)<=>CH2OH(+M)                   5.400e+11    0.454   3599.90
H2/2.00/ H2O/6.00/ CO2/2.00/ CO/1.50/ CH4/2.00/ C2H6/3.00/  
 
     LOW  /  1.270e+32   -4.820   6530.11 /
     TROE/  0.7187   103.00   1291.00   4160.00 /
CH2O+H(+M)<=>CH3O(+M)                    5.400e+11    0.454   2599.90
H2/2.00/ H2O/6.00/ CO2/2.00/ CO/1.50/ CH4/2.00/ C2H6/3.00/  
 
     LOW  /  2.200e+30   -4.800   5559.99 /
     TROE/   0.758    94.00   1555.00   4200.00 /
CH2O+H<=>HCO+H2                          2.300e+10    1.050   3275.10
CH2O+O<=>HCO+OH                          3.900e+13    0.000   3539.91
CH2O+OH<=>HCO+H2O                        3.430e+09    1.180   -446.94
CH2O+O2<=>HCO+HO2                        1.000e+14    0.000  40000.00
CH2O+HO2<=>HCO+H2O2                      1.000e+12    0.000   8000.00
CH2O+CH<=>CH2CO+H                        9.460e+13    0.000   -515.06
CH3+H(+M)<=>CH4(+M)                      1.270e+16   -0.630    382.89
AR/0.70/ H2/2.00/ H2O/6.00/ CO2/2.00/ CO/1.50/ CH4/2.00/ C2H6/3.00/  
 
     LOW  /  2.477e+33   -4.760   2440.01 /
     TROE/   0.783    74.00   2941.00   6964.00 /
CH3+O<=>CH2O+H                           8.430e+13    0.000      0.00
CH3+OH(+M)<=>CH3OH(+M)                   6.300e+13    0.000      0.00
H2/2.00/ H2O/6.00/ CO2/2.00/ CO/1.50/ CH4/2.00/ C2H6/3.00/  
 
     LOW  /  2.700e+38   -6.300   3099.90 /
     TROE/  0.2105    83.50   5398.00   8370.00 /
CH3+OH<=>CH2+H2O                         5.600e+07    1.600   5419.93
CH3+OH<=>CH2D+H2O                        2.501e+13    0.000      0.00
CH3+O2<=>O+CH3O                          3.083e+13    0.000  28799.95
CH3+O2<=>OH+CH2O                         3.600e+10    0.000   8940.01
CH3+HO2<=>CH4+O2                         1.000e+12    0.000      0.00
CH3+HO2<=>CH3O+OH                        1.340e+13    0.000      0.00
CH3+H2O2<=>CH4+HO2                       2.450e+04    2.470   5179.97
CH3+C<=>C2H2+H                           5.000e+13    0.000      0.00
CH3+CH<=>C2H3+H                          3.000e+13    0.000      0.00
CH3+HCO<=>CH4+CO                         8.480e+12    0.000      0.00
CH3+CH2O<=>CH4+HCO                       3.320e+03    2.810   5859.94
CH3+CH2<=>C2H4+H                         4.000e+13    0.000      0.00
CH3+CH2D<=>C2H4+H                        1.200e+13    0.000   -570.03
2CH3(+M)<=>C2H6(+M)                      2.120e+16   -0.970    619.98
AR/0.70/ H2/2.00/ H2O/6.00/ CO2/2.00/ CO/1.50/ CH4/2.00/ C2H6/3.00/  
 
     LOW  /  1.770e+50   -9.670   6219.89 /
     TROE/  0.5325   151.00   1038.00   4970.00 /
2CH3<=>H+C2H5                            4.990e+12    0.100  10599.90
CH3+HCCO<=>C2H4+CO                       5.000e+13    0.000      0.00
CH3+C2H<=>C3H3+H                         2.410e+13    0.000      0.00
CH3O+H(+M)<=>CH3OH(+M)                   5.000e+13    0.000      0.00
H2/2.00/ H2O/6.00/ CO2/2.00/ CO/1.50/ CH4/2.00/ C2H6/3.00/  
 
     LOW  /  8.600e+28   -4.000   3025.10 /
     TROE/  0.8902   144.00   2838.00  45570.00 /
CH3O+H<=>CH2OH+H                         3.400e+06    1.600      0.00
CH3O+H<=>CH2O+H2                         2.000e+13    0.000      0.00
CH3O+H<=>CH3+OH                          3.200e+13    0.000      0.00
CH3O+H<=>CH2D+H2O                        1.600e+13    0.000      0.00
CH3O+O<=>CH2O+OH                         1.000e+13    0.000      0.00
CH3O+OH<=>CH2O+H2O                       5.000e+12    0.000      0.00
CH3O+O2<=>CH2O+HO2                       4.280e-13    7.600  -3530.11
CH2OH+H(+M)<=>CH3OH(+M)                  1.800e+13    0.000      0.00
H2/2.00/ H2O/6.00/ CO2/2.00/ CO/1.50/ CH4/2.00/ C2H6/3.00/  
 
     LOW  /  3.000e+31   -4.800   3299.95 /
     TROE/  0.7679   338.00   1812.00   5081.00 /
CH2OH+H<=>CH2O+H2                        2.000e+13    0.000      0.00
CH2OH+H<=>CH3+OH                         1.200e+13    0.000      0.00
CH2OH+H<=>CH2D+H2O                       6.000e+12    0.000      0.00
CH2OH+O<=>CH2O+OH                        1.000e+13    0.000      0.00
CH2OH+OH<=>CH2O+H2O                      5.000e+12    0.000      0.00
CH2OH+O2<=>CH2O+HO2                      1.800e+13    0.000    900.10
CH4+H<=>CH3+H2                           6.600e+08    1.620  10840.11
CH4+O<=>CH3+OH                           1.020e+09    1.500   8599.90
CH4+OH<=>CH3+H2O                         1.000e+08    1.600   3119.98
CH4+CH<=>C2H4+H                          6.000e+13    0.000      0.00
CH4+CH2<=>2CH3                           2.460e+06    2.000   8270.08
CH4+CH2D<=>2CH3                          1.600e+13    0.000   -570.03
CH4+C2H<=>C2H2+CH3                       1.810e+12    0.000    500.00
CH3OH+H<=>CH2OH+H2                       1.700e+07    2.100   4869.98
CH3OH+H<=>CH3O+H2                        4.200e+06    2.100   4869.98
CH3OH+O<=>CH2OH+OH                       3.880e+05    2.500   3099.90
CH3OH+O<=>CH3O+OH                        1.300e+05    2.500   5000.00
CH3OH+OH<=>CH2OH+H2O                     1.440e+06    2.000   -840.11
CH3OH+OH<=>CH3O+H2O                      6.300e+06    2.000   1500.00
CH3OH+CH3<=>CH2OH+CH4                    3.000e+07    1.500   9940.01
CH3OH+CH3<=>CH3O+CH4                     1.000e+07    1.500   9940.01
C2H+H(+M)<=>C2H2(+M)                     1.000e+17   -1.000      0.00
AR/0.70/ H2/2.00/ H2O/6.00/ CO2/2.00/ CO/1.50/ CH4/2.00/ C2H6/3.00/  
 
     LOW  /  3.750e+33   -4.800   1900.10 /
     TROE/  0.6464   132.00   1315.00   5566.00 /
C2H+O<=>CH+CO                            5.000e+13    0.000      0.00
C2H+OH<=>H+HCCO                          2.000e+13    0.000      0.00
C2H+O2<=>HCO+CO                          5.000e+13    0.000   1500.00
C2H+H2<=>H+C2H2                          4.900e+05    2.500    559.99
C2O+H<=>CH+CO                            5.000e+13    0.000      0.00
C2O+O<=>2CO                              5.000e+13    0.000      0.00
C2O+OH<=>2CO+H                           2.000e+13    0.000      0.00
C2O+O2<=>2CO+O                           2.000e+13    0.000      0.00
HCCO+H<=>CH2D+CO                         1.000e+14    0.000      0.00
HCCO+O<=>H+2CO                           1.000e+14    0.000      0.00
HCCO+O2<=>OH+2CO                         1.600e+12    0.000    853.97
HCCO+CH<=>C2H2+CO                        5.000e+13    0.000      0.00
HCCO+CH2<=>C2H3+CO                       3.000e+13    0.000      0.00
2HCCO<=>C2H2+2CO                         1.000e+13    0.000      0.00
HCCO+OH<=>C2O+H2O                        3.000e+13    0.000      0.00
C2H2(+M)<=>H2CC(+M)                      8.000e+14   -0.520  50750.00
H2/2.00/ H2O/6.00/ CO2/2.00/ CO/1.50/ CH4/2.00/ C2H4/2.50/ C2H6/3.00/ 
  
     LOW  /  2.450e+15   -0.640  49700.05 /
!     FCCHECK/  0.0000      0.00 0.0000      0.00 1.0000      0.00
     TROE/       1     1.00 10000000.00 10000000.00 /
C2H3(+M)<=>C2H2+H(+M)                    3.860e+08    1.620  37048.28
AR/0.70/ H2/2.00/ H2O/6.00/ CO2/2.00/ CO/1.50/ C2H2/3.00/ CH4/2.00/ C2H4/3.00/ 
C2H6/3.00/   
     LOW  /  2.565e+27   -3.400  35799.95 /
     TROE/   1.982  5384.00      4.29     -0.08 /
C2H2+O<=>C2H+OH                          4.600e+19   -1.410  28950.05
C2H2+O<=>CH2+CO                          4.080e+06    2.000   1900.10
C2H2+O<=>HCCO+H                          1.632e+07    2.000   1900.10
C2H2+OH<=>CH2CO+H                        2.180e-04    4.500  -1000.00
C2H2+OH<=>HCCOH+H                        5.040e+05    2.300  13500.00
C2H2+OH<=>C2H+H2O                        3.370e+07    2.000  14000.00
C2H2+OH<=>CH3+CO                         4.830e-04    4.000  -2000.00
C2H2+HCO<=>C2H3+CO                       1.000e+07    2.000   6000.00
C2H2+CH2<=>C3H3+H                        1.200e+13    0.000   6619.98
C2H2+CH2D<=>C3H3+H                       2.000e+13    0.000      0.00
C2H2+C2H<=>C4H2+H                        9.600e+13    0.000      0.00
C2H2+C2H(+M)<=>NXXC4H3(+M)               8.300e+10    0.899   -363.05
H2/2.00/ H2O/6.00/ CO2/2.00/ CO/1.50/ C2H2/2.50/ CH4/2.00/ C2H4/2.50/ 
C2H6/3.00/   
     LOW  /  1.240e+31   -4.718   1870.94 /
     TROE/       1   100.00   5613.00  13390.00 /
C2H2+C2H(+M)<=>IXXC4H3(+M)               8.300e+10    0.899   -363.05
H2/2.00/ H2O/6.00/ CO2/2.00/ CO/1.50/ C2H2/2.50/ CH4/2.00/ C2H4/2.50/ 
C2H6/3.00/   
     LOW  /  1.240e+31   -4.718   1870.94 /
     TROE/       1   100.00   5613.00  13390.00 /
C2H2+HCCO<=>C3H3+CO                      1.000e+11    0.000   3000.00
C2H2+CH3<=>PXC3H4+H                      2.560e+09    1.100  13643.88
C2H2+CH3<=>AXC3H4+H                      5.140e+09    0.860  22152.96
C2H2+CH3<=>C3H5XT                        4.990e+22   -4.390  18849.90
C2H2+CH3<=>C3H5XS                        3.200e+35   -7.760  13299.95
C2H2+CH3<=>C3H5XA                        2.680e+53  -12.820  35729.92
H2CC+H<=>C2H2+H                          1.000e+14    0.000      0.00
H2CC+OH<=>CH2CO+H                        2.000e+13    0.000      0.00
H2CC+O2<=>2HCO                           1.000e+13    0.000      0.00
H2CC+C2H2(+M)<=>C4H4(+M)                 3.500e+05    2.055  -2400.10
H2/2.00/ H2O/6.00/ CO2/2.00/ CO/1.50/ C2H2/3.00/ CH4/2.00/ C2H4/3.00/ 
C2H6/3.00/   
     LOW  /  1.400e+60  -12.600   7417.07 /
     TROE/    0.98    56.00    580.00   4164.00 /
H2CC+C2H4<=>C4H6X13                      1.000e+12    0.000      0.00
CH2CO+H(+M)<=>CH2CHO(+M)                 3.300e+14   -0.060   8500.00
AR/0.70/ H2/2.00/ H2O/6.00/ CO2/2.00/ CO/1.50/ C2H2/3.00/ CH4/2.00/ 
C2H4/3.00/ C2H6/3.00/   
     LOW  /  3.800e+41   -7.640  11900.10 /
     TROE/   0.337  1707.00   3200.00   4131.00 /
CH2CO+H<=>HCCO+H2                        5.000e+13    0.000   8000.00
CH2CO+H<=>CH3+CO                         1.500e+09    1.430   2690.01
CH2CO+O<=>HCCO+OH                        1.000e+13    0.000   8000.00
CH2CO+O<=>CH2+CO2                        1.750e+12    0.000   1349.90
CH2CO+OH<=>HCCO+H2O                      7.500e+12    0.000   2000.00
HCCOH+H<=>CH2CO+H                        1.000e+13    0.000      0.00
C2H3+H(+M)<=>C2H4(+M)                    6.080e+12    0.270    280.11
AR/0.70/ H2/2.00/ H2O/6.00/ CO2/2.00/ CO/1.50/ C2H2/3.00/ CH4/2.00/ C2H4/3.00/ 
C2H6/3.00/   
     LOW  /  1.400e+30   -3.860   3320.03 /
     TROE/   0.782   207.50   2663.00   6095.00 /
C2H3+H<=>C2H2+H2                         9.000e+13    0.000      0.00
C2H3+H<=>H2CC+H2                         6.000e+13    0.000      0.00
C2H3+O<=>CH2CO+H                         4.800e+13    0.000      0.00
C2H3+O<=>CH3+CO                          4.800e+13    0.000      0.00
C2H3+OH<=>C2H2+H2O                       3.011e+13    0.000      0.00
C2H3+O2<=>C2H2+HO2                       1.340e+06    1.610   -383.37
C2H3+O2<=>CH2CHO+O                       3.000e+11    0.290     10.99
C2H3+O2<=>HCO+CH2O                       4.600e+16   -1.390   1010.04
C2H3+HO2<=>CH2CHO+OH                     1.000e+13    0.000      0.00
C2H3+H2O2<=>C2H4+HO2                     1.210e+10    0.000   -596.08
C2H3+HCO<=>C2H4+CO                       9.033e+13    0.000      0.00
C2H3+HCO<=>C2H3CHO                       1.800e+13    0.000      0.00
C2H3+CH3<=>C2H2+CH4                      3.920e+11    0.000      0.00
C2H3+CH3(+M)<=>C3H6(+M)                  2.500e+13    0.000      0.00
AR/0.70/ H2/2.00/ H2O/6.00/ CO2/2.00/ CO/1.50/ CH4/2.00/ C2H4/3.00/ C2H6/3.00/ 
  
     LOW  /  4.270e+58  -11.940   9770.08 /
     TROE/   0.175  1341.00  60000.00  10140.00 /
C2H3+CH3<=>C3H5XA+H                      1.500e+24   -2.830  18618.07
C2H3+C2H2<=>C4H4+H                       2.000e+18   -1.680  10599.90
C2H3+C2H2<=>NXXC4H5                      9.300e+38   -8.760  12000.00
C2H3+C2H2<=>IXXC4H5                      1.600e+46  -10.980  18599.90
2C2H3<=>C4H6X13                          1.500e+42   -8.840  12483.03
2C2H3<=>IXXC4H5+H                        1.200e+22   -2.440  13653.92
2C2H3<=>NXXC4H5+H                        2.400e+20   -2.040  15360.90
2C2H3<=>C2H2+C2H4                        9.600e+11    0.000      0.00
CH2CHO<=>CH3+CO                          7.800e+41   -9.147  46900.10
CH2CHO+H(+M)<=>CH3CHO(+M)                1.000e+14    0.000      0.00
H2/2.00/ H2O/6.00/ CO2/2.00/ CO/1.50/ C2H2/3.00/ CH4/2.00/ C2H4/3.00/ 
C2H6/3.00/   
     LOW  /  5.200e+39   -7.297   4700.05 /
     TROE/    0.55  8900.00   4350.00   7244.00 /
CH2CHO+H<=>CH3CO+H                       5.000e+12    0.000      0.00
CH2CHO+H<=>CH3+HCO                       9.000e+13    0.000      0.00
CH2CHO+H<=>CH2CO+H2                      2.000e+13    0.000   4000.00
CH2CHO+O<=>CH2CO+OH                      2.000e+13    0.000   4000.00
CH2CHO+OH<=>CH2CO+H2O                    1.000e+13    0.000   2000.00
CH2CHO+O2<=>CH2CO+HO2                    1.400e+11    0.000      0.00
CH2CHO+O2<=>CH2O+CO+OH                   1.800e+10    0.000      0.00
CH3+CO(+M)<=>CH3CO(+M)                   4.850e+07    1.650   6150.10
AR/0.70/ H2/2.00/ H2O/6.00/ CO2/2.00/ CO/1.50/ C2H2/3.00/ CH4/2.00/ C2H4/3.00/ 
C2H6/3.00/   
     LOW  /  7.800e+30   -5.395   8599.90 /
     TROE/   0.258   598.00  21000.00   1773.00 /
CH3CO+H(+M)<=>CH3CHO(+M)                 9.600e+13    0.000      0.00
H2/2.00/ H2O/6.00/ CO2/2.00/ CO/1.50/ C2H2/3.00/ CH4/2.00/ C2H4/3.00/ 
C2H6/3.00/   
     LOW  /  3.850e+44   -8.569   5500.00 /
     TROE/       1  2900.00   2900.00   5132.00 /
CH3CO+H<=>CH3+HCO                        9.600e+13    0.000      0.00
CH3CO+O<=>CH2CO+OH                       3.900e+13    0.000      0.00
CH3CO+O<=>CH3+CO2                        1.500e+14    0.000      0.00
CH3CO+OH<=>CH2CO+H2O                     1.200e+13    0.000      0.00
CH3CO+OH<=>CH3+CO+OH                     3.000e+13    0.000      0.00
CH3CO+HO2<=>CH3+CO2+OH                   3.000e+13    0.000      0.00
CH3CO+H2O2<=>CH3CHO+HO2                  1.800e+11    0.000   8226.10
CH3+HCO(+M)<=>CH3CHO(+M)                 1.800e+13    0.000      0.00
H2/2.00/ H2O/6.00/ CO2/2.00/ CO/1.50/ C2H2/3.00/ CH4/2.00/ C2H4/3.00/ 
C2H6/3.00/   
     LOW  /  2.200e+48   -9.588   5099.90 /
     TROE/  0.6173    13.08   2078.00   5093.00 /
CH3CHO+H<=>CH3CO+H2                      4.100e+09    1.160   2400.10
CH3CHO+H<=>CH4+HCO                       5.000e+10    0.000      0.00
CH3CHO+O<=>CH3CO+OH                      5.800e+12    0.000   1799.95
CH3CHO+OH<=>CH3CO+H2O                    2.350e+10    0.730  -1109.94
CH3CHO+CH3<=>CH3CO+CH4                   2.000e-06    5.600   2460.09
CH3CHO+HCO<=>CO+HCO+CH4                  8.000e+12    0.000  10400.10
CH3CHO+O2<=>CH3CO+HO2                    3.000e+13    0.000  39099.90
CH2OCH2<=>CH3+HCO                        3.630e+13    0.000  57200.05
CH2OCH2<=>CH3CHO                         7.260e+13    0.000  57200.05
CH2OCH2<=>CH4+CO                         1.210e+13    0.000  57200.05
CH2OCH2+H<=>CH2OCH+H2                    2.000e+13    0.000   8299.95
CH2OCH2+H<=>C2H3+H2O                     5.000e+09    0.000   5000.00
CH2OCH2+H<=>C2H4+OH                      9.510e+10    0.000   5000.00
CH2OCH2+O<=>CH2OCH+OH                    1.910e+12    0.000   5250.00
CH2OCH2+OH<=>CH2OCH+H2O                  1.780e+13    0.000   3609.94
CH2OCH2+CH3<=>CH2OCH+CH4                 1.070e+12    0.000  11830.07
CH2OCH+M<=>CH3+CO+M                      3.160e+14    0.000  12000.00
  
CH2OCH+M<=>CH2CHO+M                      5.000e+09    0.000      0.00
  
CH2OCH+M<=>CH2CO+H+M                     3.000e+13    0.000   8000.00
  
C2H4(+M)<=>H2+H2CC(+M)                   8.000e+12    0.440  88770.08
AR/0.70/ H2/2.00/ H2O/6.00/ CO2/2.00/ CO/1.50/ CH4/2.00/ C2H6/3.00/  
 
     LOW  /  7.000e+50   -9.310  99859.94 /
     TROE/  0.7345   180.00   1035.00   5417.00 /
C2H4+H(+M)<=>C2H5(+M)                    1.367e+09    1.463   1354.92
AR/0.70/ H2/2.00/ H2O/6.00/ CO2/2.00/ CO/1.50/ CH4/2.00/ C2H6/3.00/  
 
     LOW  /  2.027e+39   -6.642   5768.88 /
     TROE/  -0.569   299.00   9147.00   -152.40 /
C2H4+H<=>C2H3+H2                         5.070e+07    1.900  12950.05
C2H4+O<=>C2H3+OH                         1.510e+07    1.900   3739.96
C2H4+O<=>CH3+HCO                         1.920e+07    1.830    219.89
C2H4+O<=>CH2+CH2O                        3.840e+05    1.830    219.89
C2H4+OH<=>C2H3+H2O                       3.600e+06    2.000   2500.00
C2H4+HCO<=>C2H5+CO                       1.000e+07    2.000   8000.00
C2H4+CH<=>AXC3H4+H                       3.000e+13    0.000      0.00
C2H4+CH<=>PXC3H4+H                       3.000e+13    0.000      0.00
C2H4+CH2<=>C3H5XA+H                      2.000e+13    0.000   6000.00
C2H4+CH2D<=>H2CC+CH4                     5.000e+13    0.000      0.00
C2H4+CH2D<=>C3H5XA+H                     5.000e+13    0.000      0.00
C2H4+CH3<=>C2H3+CH4                      2.270e+05    2.000   9200.05
C2H4+CH3<=>NXXC3H7                       3.300e+11    0.000   7700.05
C2H4+C2H<=>C4H4+H                        1.200e+13    0.000      0.00
C2H4+O2<=>C2H3+HO2                       4.220e+13    0.000  60799.95
C2H4+C2H3<=>C4H7                         7.930e+38   -8.470  14219.89
C2H4+HO2<=>CH2OCH2+OH                    2.820e+12    0.000  17099.90
C2H5+H(+M)<=>C2H6(+M)                    5.210e+17   -0.990   1580.07
AR/0.70/ H2/2.00/ H2O/6.00/ CO2/2.00/ CO/1.50/ CH4/2.00/ C2H6/3.00/  
 
     LOW  /  1.990e+41   -7.080   6684.99 /
     TROE/  0.8422   125.00   2219.00   6882.00 /
C2H5+H<=>C2H4+H2                         2.000e+12    0.000      0.00
C2H5+O<=>CH3+CH2O                        1.604e+13    0.000      0.00
C2H5+O<=>CH3CHO+H                        8.020e+13    0.000      0.00
C2H5+O2<=>C2H4+HO2                       2.000e+10    0.000      0.00
C2H5+HO2<=>C2H6+O2                       3.000e+11    0.000      0.00
C2H5+HO2<=>C2H4+H2O2                     3.000e+11    0.000      0.00
C2H5+HO2<=>CH3+CH2O+OH                   2.400e+13    0.000      0.00
C2H5+H2O2<=>C2H6+HO2                     8.700e+09    0.000    973.95
C2H5+CH3(+M)<=>C3H8(+M)                  4.900e+14   -0.500      0.00
AR/0.70/ H2/2.00/ H2O/6.00/ CO2/2.00/ CO/1.50/ CH4/2.00/ C2H6/3.00/  
 
     LOW  /  6.800e+61  -13.420   6000.00 /
     TROE/       1  1000.00   1434.00   5329.00 /
C2H5+C2H3(+M)<=>C4H8X1(+M)               1.500e+13    0.000      0.00
AR/0.70/ H2/2.00/ H2O/6.00/ CO2/2.00/ CO/1.50/ CH4/2.00/ C2H6/3.00/ 
  
     LOW  /  1.550e+56  -11.790   8983.99 /
     TROE/   0.198  2278.00  60000.00   5723.00 /
C2H5+C2H3<=>C3H5XA+CH3                   3.900e+32   -5.220  19746.89
C2H6+H<=>C2H5+H2                         1.150e+08    1.900   7530.11
C2H6+O<=>C2H5+OH                         8.980e+07    1.920   5690.01
C2H6+OH<=>C2H5+H2O                       3.540e+06    2.120    869.98
C2H6+CH2D<=>C2H5+CH3                     4.000e+13    0.000   -549.95
C2H6+CH3<=>C2H5+CH4                      6.140e+06    1.740  10450.05
C3H3+H<=>PXC3H4                          1.500e+13    0.000      0.00
C3H3+H<=>AXC3H4                          2.500e+12    0.000      0.00
C3H3+O<=>CH2O+C2H                        2.000e+13    0.000      0.00
C3H3+O2<=>CH2CO+HCO                      3.000e+10    0.000   2868.07
C3H3+HO2<=>OH+CO+C2H3                    8.000e+11    0.000      0.00
C3H3+HO2<=>AXC3H4+O2                     3.000e+11    0.000      0.00
C3H3+HO2<=>PXC3H4+O2                     2.500e+12    0.000      0.00
C3H3+HCO<=>AXC3H4+CO                     2.500e+13    0.000      0.00
C3H3+HCO<=>PXC3H4+CO                     2.500e+13    0.000      0.00
C3H3+HCCO<=>C4H4+CO                      2.500e+13    0.000      0.00
C3H3+CH<=>IXXC4H3+H                      5.000e+13    0.000      0.00
C3H3+CH2<=>C4H4+H                        5.000e+13    0.000      0.00
C3H3+CH3(+M)<=>C4H6X12(+M)               1.500e+12    0.000      0.00
AR/0.70/ H2/2.00/ H2O/6.00/ CO2/2.00/ CO/1.50/ CH4/2.00/ C2H6/3.00/ 
  